#!/bin/bash
set -x 
SHOME="."
CFG=$2
DIR=$1
SIM="${SHOME}/bin/sim-outorder"

CONFIG=" -config ${SHOME}/configs/${DIR}/${CFG}.txt "

parameters="-cache:il1 none -cache:dl1 none -mem:lat 1 1 "

echo running app dijkstra
${SIM} ${CONFIG} -redir:sim ${SHOME}/configs/${DIR}/Stats_${CFG}_dijkstra.txt ${SHOME}/apps/dijkstra/dijkstra_small  ${SHOME}/apps/dijkstra/input.dat 

echo running app dijkstra without cache and 1 lantency for memory aceessing
${SIM} ${CONFIG} ${parameters} -redir:sim ${SHOME}/configs/${DIR}/Stats_${CFG}_dijkstra.txt_CPI0 ${SHOME}/apps/dijkstra/dijkstra_small  ${SHOME}/apps/dijkstra/input.dat 


echo running app search_small
${SIM} ${CONFIG} -redir:sim ${SHOME}/configs/${DIR}/Stats_${CFG}_stringsearch-cabce.txt ${SHOME}/apps/stringsearch/search_small  
${SIM} ${CONFIG} ${parameters} -redir:sim ${SHOME}/configs/${DIR}/Stats_${CFG}_stringsearch-cabce.txt_CPI0 ${SHOME}/apps/stringsearch/search_small  


echo running app qsort
${SIM} ${CONFIG} -redir:sim ${SHOME}/configs/${DIR}/Stats_${CFG}_qsort.txt ${SHOME}/apps/qsort/qsort_small  ${SHOME}/apps/qsort/input_small.dat > ${SHOME}/configs/${DIR}/qsort_small-output.txt
${SIM} ${CONFIG} ${parameters} -redir:sim ${SHOME}/configs/${DIR}/Stats_${CFG}_qsort.txt_CPI0 ${SHOME}/apps/qsort/qsort_small  ${SHOME}/apps/qsort/input_small.dat > ${SHOME}/configs/${DIR}/qsort_small-output.txt


echo running app gsm
${SIM} ${CONFIG} -redir:sim ${SHOME}/configs/${DIR}/Stats_${CFG}_gsm-untoast.txt ${SHOME}/apps/gsm-untoast/untoast -fps -c ${SHOME}/apps/gsm-untoast/small.au.run.gsm > ${SHOME}/configs/${DIR}/gsm-untoast-output_small.decode.run
${SIM} ${CONFIG} ${parameters} -redir:sim ${SHOME}/configs/${DIR}/Stats_${CFG}_gsm-untoast.txt_CPI0 ${SHOME}/apps/gsm-untoast/untoast -fps -c ${SHOME}/apps/gsm-untoast/small.au.run.gsm > ${SHOME}/configs/${DIR}/gsm-untoast-output_small.decode.run


echo running app jpeg
${SIM}  ${CONFIG} -redir:sim ${SHOME}/configs/${DIR}/Stats_${CFG}_jpeg-cjpeg.txt ${SHOME}/apps/jpeg-cjpeg/cjpeg -dct int -progressive -opt -outfile ${SHOME}/configs/${DIR}/jpeg-cjpeg_output_small_encode.jpeg ${SHOME}/apps/jpeg-cjpeg/input_small.ppm
${SIM}  ${CONFIG} ${parameters} -redir:sim ${SHOME}/configs/${DIR}/Stats_${CFG}_jpeg-cjpeg.txt_CPI0 ${SHOME}/apps/jpeg-cjpeg/cjpeg -dct int -progressive -opt -outfile ${SHOME}/configs/${DIR}/jpeg-cjpeg_output_small_encode.jpeg ${SHOME}/apps/jpeg-cjpeg/input_small.ppm


